# Packages
 &PACKAGES
 useOBCS=.TRUE.,
 useMNC =.FALSE.,
 usePP81=.FALSE.,
 useKPP=.FALSE.,
 &
